sectionalized/peak_load/0pc/TNB_DUMA_VLN.Txt

SYMMETRICAL COMPONENT VOLTAGES BY BUS (for 3-phase buses)

Bus               Mag:   V1 (kV)    p.u.     V2 (kV)   %V2/V1    V0 (kV)    %V0/V1

ppu_duma_33kv         18.9     0.9918  9.249E-009  4.895E-008 1.239E-009 6.559E-009
ppu_duma_11kv_a      6.222     0.9797  3.231E-009  5.193E-008 9.895E-012 1.59E-010
ppu_duma_11kv_b      6.189     0.9745  3.216E-009  5.197E-008 1.425E-011 2.303E-010
rpplngi2             6.151     0.9685  3.199E-009  5.201E-008 1.489E-011 2.422E-010
pdtjlnmasjid         6.122      0.964  3.187E-009  5.205E-008 1.557E-011 2.543E-010
bella                6.103      0.961  3.178E-009  5.207E-008 1.61E-011 2.637E-010
pstpdgn              6.094     0.9596  3.174E-009  5.208E-008 1.638E-011 2.688E-010
atria_1              6.157     0.9695  3.202E-009  5.201E-008 1.476E-011 2.397E-010
hawker               6.151     0.9685  3.199E-009  5.201E-008 1.688E-011 2.745E-010
duma7                6.178     0.9729  3.212E-009  5.198E-008 1.44E-011 2.33E-010
haus                 6.166      0.971  3.206E-009   5.2E-008 1.789E-011 2.901E-010
duma6                6.136     0.9661  3.193E-009  5.204E-008 3.673E-011 5.987E-010
duma13               6.113     0.9625  3.183E-009  5.206E-008 5.333E-011 8.725E-010
ssu_duma5_im2        6.107     0.9615  3.18E-009  5.207E-008 5.369E-011 8.792E-010
pdtlitrak            6.136     0.9662  3.193E-009  5.203E-008 1.522E-011 2.481E-010
duma12               6.115     0.9629  3.183E-009  5.206E-008 1.577E-011 2.579E-010
tmngh4               6.099     0.9603  3.176E-009  5.208E-008 2.315E-011 3.797E-010
ssu_tmegah3_ir1      6.092     0.9592  3.173E-009  5.208E-008 2.731E-011 4.483E-010
tmngh2               6.088     0.9586  3.171E-009  5.209E-008 2.983E-011  4.9E-010
ssu_uptwres_im2      6.175     0.9723  3.21E-009  5.199E-008 1.721E-011 2.787E-010
maybank              6.167      0.971  3.207E-009   5.2E-008 1.753E-011 2.842E-010
duma8                6.166     0.9708  3.206E-009   5.2E-008 1.808E-011 2.932E-010
duma9                6.137     0.9663  3.193E-009  5.203E-008 1.52E-011 2.477E-010
duma1                6.116      0.963  3.184E-009  5.205E-008 1.574E-011 2.573E-010
elite                6.109     0.9618  3.18E-009  5.206E-008 1.595E-011 2.61E-010
pamdra                6.22     0.9795  3.231E-009  5.194E-008 9.92E-012 1.595E-010
duma4                6.214     0.9785  3.228E-009  5.194E-008 1.165E-011 1.876E-010
plsdra               6.198     0.9759  3.22E-009  5.196E-008 2.08E-011 3.355E-010
prmte                6.167     0.9711  3.207E-009   5.2E-008 3.63E-011 5.886E-010
prmta                6.159     0.9698  3.203E-009  5.201E-008 3.676E-011 5.969E-010
pmontb               6.156     0.9693  3.202E-009  5.201E-008 3.933E-011 6.389E-010
plngi_b              6.216     0.9788  3.229E-009  5.194E-008 9.982E-012 1.606E-010
plngi_d              6.215     0.9787  3.228E-009  5.194E-008 9.992E-012 1.608E-010
sprk9                6.125     0.9645  3.188E-009  5.204E-008 1.241E-011 2.025E-010
bomba                6.121     0.9638  3.186E-009  5.205E-008 1.436E-011 2.346E-010
sprk8                 6.11     0.9621  3.181E-009  5.206E-008 2.081E-011 3.407E-010
ssu_dsarcntr_ir1      6.22     0.9794  3.231E-009  5.194E-008 9.921E-012 1.595E-010
duma10                 6.2     0.9763  3.222E-009  5.196E-008 1.025E-011 1.653E-010
balaipolis             6.2     0.9763  3.221E-009  5.196E-008 1.025E-011 1.653E-010
ssu_uptwres_ir1      6.192      0.975  3.218E-009  5.197E-008 2.11E-011 3.408E-010
ppu_duma_vcb1            0          0          0          0         0         0
